%chk=C:\Users\tkmeldrum\Documents\MDworking\C10H22.chk
# opt b3lyp/6-31g geom=connectivity

Title Card Required

0 1
 C                 -7.61006339    0.31444246    0.00001277
 H                 -7.25356319   -0.69442204    0.00012987
 H                 -7.25323660    0.81871220   -0.87365002
 H                 -8.68006337    0.31461902   -0.00008143
 C                 -7.09672095    1.04042756    1.25740100
 H                 -7.45322115    2.04929207    1.25728390
 H                 -7.45354775    0.53615782    2.13106379
 C                 -5.55672098    1.04017346    1.25753658
 H                 -5.19989419    1.54444320    0.38387379
 H                 -5.20022078    0.03130895    1.25765369
 C                 -5.04337855    1.76615856    2.51492482
 H                 -5.40020534    1.26188882    3.38858761
 H                 -5.39987875    2.77502306    2.51480771
 C                 -3.50337857    1.76590446    2.51506039
 H                 -3.14655178    2.27017420    1.64139760
 H                 -3.14687837    0.75703995    2.51517750
 C                 -2.99003614    2.49188955    3.77244863
 H                 -3.34686293    1.98761981    4.64611142
 H                 -3.34653634    3.50075406    3.77233153
 C                 -1.45003616    2.49163545    3.77258421
 H                 -1.09320937    2.99590519    2.89892142
 H                 -1.09353597    1.48277094    3.77270132
 C                 -0.93669373    3.21762055    5.02997245
 H                 -1.29352052    2.71335081    5.90363524
 H                 -1.29319393    4.22648506    5.02985534
 C                  0.60330624    3.21736645    5.03010802
 H                  0.96013303    3.72163619    4.15644523
 H                  0.95980644    2.20850194    5.03022513
 C                  1.11664868    3.94335154    6.28749626
 H                  0.75982189    3.43908180    7.16115905
 H                  2.18664866    3.94317499    6.28759046
 H                  0.76014848    4.95221605    6.28737915

 1 2 1.0 3 1.0 4 1.0 5 1.0
 2
 3
 4
 5 6 1.0 7 1.0 8 1.0
 6
 7
 8 9 1.0 10 1.0 11 1.0
 9
 10
 11 12 1.0 13 1.0 14 1.0
 12
 13
 14 15 1.0 16 1.0 17 1.0
 15
 16
 17 18 1.0 19 1.0 20 1.0
 18
 19
 20 21 1.0 22 1.0 23 1.0
 21
 22
 23 24 1.0 25 1.0 26 1.0
 24
 25
 26 27 1.0 28 1.0 29 1.0
 27
 28
 29 30 1.0 31 1.0 32 1.0
 30
 31
 32

