%chk=C:\Users\tkmeldrum\Documents\MDworking\C16H34.chk
# opt b3lyp/6-31g geom=connectivity

Title Card Required

0 1
 C                 -9.30817750   -3.80526812    0.00013606
 H                 -8.95312944   -4.81464380    0.00140481
 H                 -8.94990093   -3.30225412   -0.87365728
 H                -10.37817569   -3.80355286   -0.00084720
 C                 -8.79483428   -3.07895454    1.25733431
 H                 -9.14988219   -2.06957883    1.25606535
 H                 -9.15311102   -3.58196833    2.13112769
 C                 -7.25483692   -3.08142349    1.25874970
 H                 -6.89656017   -2.57841026    0.38495597
 H                 -6.89978898   -4.09079917    1.26001940
 C                 -6.74149366   -2.35510882    2.51594732
 H                 -7.09977059   -2.85812167    3.38974121
 H                 -7.09654135   -1.34573303    2.51467732
 C                 -5.20149631   -2.35757795    2.51736271
 H                 -4.84321961   -1.85456639    1.64356807
 H                 -4.84644839   -3.36695369    2.51863425
 C                 -4.68815320   -1.63126062    3.77455879
 H                 -5.04642874   -2.13427245    4.64835378
 H                 -5.04320237   -0.62188534    3.77328725
 C                 -3.14815579   -1.63372722    3.77597285
 H                 -2.78988099   -1.13071725    2.90217650
 H                 -2.79310598   -2.64310233    3.77724656
 C                 -2.63481246   -0.90740565    5.03316645
 H                 -2.99308545   -1.41041629    5.90696324
 H                 -2.98986409    0.10196872    5.03189304
 C                 -1.09481506   -0.90986822    5.03457817
 H                 -0.73654283   -0.40685944    4.16078006
 H                 -0.73976259   -1.91924235    5.03585385
 C                 -0.58147192   -0.18354210    6.29176911
 H                 -0.93974170   -0.68655173    7.16556775
 H                 -0.93652682    0.82583117    6.29049393
 C                  0.95852547   -0.18599971    6.29317788
 H                  1.31679439    0.31700796    5.41937778
 H                  1.31358116   -1.19537270    6.29445549
 C                  1.47186875    0.54033137    7.55036594
 H                  1.11360228    0.03732266    8.42416651
 H                  1.11681054    1.54970345    7.54908897
 C                  3.01186619    0.53787884    7.55177187
 H                  3.37013202    1.04088621    6.67797030
 H                  3.36692501   -0.47149302    7.55305053
 C                  3.52520943    1.26421331    8.80895801
 H                  3.16694426    0.76120588    9.68275977
 H                  3.17015002    2.27358501    8.80767938
 C                  5.06520684    1.26176218    8.81036301
 H                  5.42347191    1.76476971    7.93656120
 H                  5.42026640    0.25239060    8.81164162
 C                  5.57855011    1.98809688   10.06754900
 H                  5.22028495    1.48508943   10.94135081
 H                  6.64854830    1.98639377   10.06852526
 H                  5.22349060    2.99746853   10.06627030

 1 2 1.0 3 1.0 4 1.0 5 1.0
 2
 3
 4
 5 6 1.0 7 1.0 8 1.0
 6
 7
 8 9 1.0 10 1.0 11 1.0
 9
 10
 11 12 1.0 13 1.0 14 1.0
 12
 13
 14 15 1.0 16 1.0 17 1.0
 15
 16
 17 18 1.0 19 1.0 20 1.0
 18
 19
 20 21 1.0 22 1.0 23 1.0
 21
 22
 23 24 1.0 25 1.0 26 1.0
 24
 25
 26 27 1.0 28 1.0 29 1.0
 27
 28
 29 30 1.0 31 1.0 32 1.0
 30
 31
 32 33 1.0 34 1.0 35 1.0
 33
 34
 35 36 1.0 37 1.0 38 1.0
 36
 37
 38 39 1.0 40 1.0 41 1.0
 39
 40
 41 42 1.0 43 1.0 44 1.0
 42
 43
 44 45 1.0 46 1.0 47 1.0
 45
 46
 47 48 1.0 49 1.0 50 1.0
 48
 49
 50

