%chk=C:\Users\tkmeldrum\Documents\MDworking\C12H26.chk
# opt b3lyp/6-31g geom=connectivity

Title Card Required

0 1
 C                 -8.80503203   -3.55370072    0.00013910
 H                 -8.44995849   -4.56306748    0.00137337
 H                 -8.44678033   -3.05065211   -0.87364453
 H                 -9.87503026   -3.55201244   -0.00082918
 C                 -8.29168957   -2.82741097    1.25735138
 H                 -8.64676310   -1.81804421    1.25611711
 H                 -8.64994127   -3.33045957    2.13113501
 C                 -6.75169212   -2.82984083    1.25874498
 H                 -6.39344042   -2.32679222    0.38496135
 H                 -6.39661859   -3.83920759    1.25997925
 C                 -6.23834967   -2.10355108    2.51595726
 H                 -6.59660137   -2.60659968    3.38974089
 H                 -6.59342320   -1.09418432    2.51472299
 C                 -4.69835222   -2.10598093    2.51735086
 H                 -4.34010052   -1.60293233    1.64356723
 H                 -4.34327869   -3.11534770    2.51858513
 C                 -4.18500977   -1.37969119    3.77456314
 H                 -4.54326146   -1.88273979    4.64834677
 H                 -4.54008330   -0.37032443    3.77332887
 C                 -2.64501231   -1.38212104    3.77595674
 H                 -2.28676062   -0.87907244    2.90217311
 H                 -2.28993878   -2.39148781    3.77719101
 C                 -2.13166986   -0.65583130    5.03316903
 H                 -2.48992156   -1.15887990    5.90695265
 H                 -2.48674339    0.35353547    5.03193475
 C                 -0.59167241   -0.65826115    5.03456262
 H                 -0.23342071   -0.15521255    4.16077899
 H                 -0.23659888   -1.66762792    5.03579689
 C                 -0.07832996    0.06802859    6.29177491
 H                 -0.43658166   -0.43502001    7.16555853
 H                 -0.43340349    1.07739536    6.29054063
 C                  1.46166749    0.06559874    6.29316850
 H                  1.81991919    0.56864734    5.41938487
 H                  1.81674103   -0.94376802    6.29440278
 C                  1.97500995    0.79188848    7.55038079
 H                  1.61675825    0.28883988    8.42416441
 H                  3.04500818    0.79020021    7.55134906
 H                  1.61993641    1.80125525    7.54914651

 1 2 1.0 3 1.0 4 1.0 5 1.0
 2
 3
 4
 5 6 1.0 7 1.0 8 1.0
 6
 7
 8 9 1.0 10 1.0 11 1.0
 9
 10
 11 12 1.0 13 1.0 14 1.0
 12
 13
 14 15 1.0 16 1.0 17 1.0
 15
 16
 17 18 1.0 19 1.0 20 1.0
 18
 19
 20 21 1.0 22 1.0 23 1.0
 21
 22
 23 24 1.0 25 1.0 26 1.0
 24
 25
 26 27 1.0 28 1.0 29 1.0
 27
 28
 29 30 1.0 31 1.0 32 1.0
 30
 31
 32 33 1.0 34 1.0 35 1.0
 33
 34
 35 36 1.0 37 1.0 38 1.0
 36
 37
 38

