%chk=C:\Users\tkmeldrum\Documents\MDworking\C18H38.chk
# opt b3lyp/6-31g geom=connectivity

Title Card Required

0 1
 C                 -9.65408956   -4.21407969    0.00013982
 H                 -9.29904703   -5.22345727    0.00142017
 H                 -9.29580741   -3.71107667   -0.87365756
 H                -10.72408776   -4.21235853   -0.00084690
 C                 -9.14074639   -3.48775592    1.25733208
 H                 -9.49578880   -2.47837820    1.25605152
 H                 -9.49902863   -3.99075872    2.13112959
 C                 -7.60074899   -3.49023324    1.25875228
 H                 -7.24246676   -2.98723126    0.38495430
 H                 -7.24570652   -4.49961087    1.26003385
 C                 -7.08740582   -2.76390788    2.51594367
 H                 -7.44568817   -3.26690953    3.38974174
 H                 -7.44244821   -1.75453021    2.51466176
 C                 -5.54740838   -2.76638516    2.51736399
 H                 -5.18912620   -2.26338461    1.64356518
 H                 -5.19236588   -3.77576278    2.51864719
 C                 -5.03406513   -2.04005756    3.77455404
 H                 -5.39234695   -2.54305777    4.64835318
 H                 -5.38910791   -1.03068002    3.77327045
 C                 -3.49406779   -2.04253400    3.77597374
 H                 -3.13578634   -1.53953533    2.90217349
 H                 -3.13902447   -3.05191131    3.77725930
 C                 -2.98072464   -1.31620283    5.03316176
 H                 -3.33900465   -1.81920188    5.90696237
 H                 -3.33576936   -0.30682603    5.03187635
 C                 -1.44072726   -1.31867616    5.03457968
 H                 -1.08244796   -0.81567906    4.16077774
 H                 -1.08568200   -2.32805284    5.03586738
 C                 -0.92738391   -0.59234056    6.29176514
 H                 -1.28566140   -1.09533822    7.16556751
 H                 -1.28243100    0.41703548    6.29047770
 C                  0.61261350   -0.59481013    6.29318093
 H                  0.97089052   -0.09181395    5.41937749
 H                  0.96766114   -1.60418591    6.29447021
 C                  1.12595670    0.13152918    7.55036428
 H                  0.76768118   -0.37146741    8.42416806
 H                  0.77090760    1.14090452    7.54907522
 C                  2.66595406    0.12906250    7.55177828
 H                  3.02422900    0.63205805    6.67797362
 H                  3.02100363   -0.88031260    7.55306866
 C                  3.17929737    0.85540461    8.80895998
 H                  2.82102385    0.35240853    9.68276492
 H                  2.82424624    1.86477921    8.80766986
 C                  4.71929475    0.85294097    8.81037231
 H                  5.07756798    1.35593565    7.93656640
 H                  5.07434614   -0.15643348    8.81166411
 C                  5.23263802    1.57928619   10.06755222
 H                  4.87436491    1.07629191   10.94135830
 H                  4.87758652    2.58866069   10.06626000
 C                  6.77263543    1.57682288   10.06896431
 H                  7.13090851    2.07981638    9.19515773
 H                  7.12768689    0.56744843   10.07025745
 C                  7.28597869    2.30316962   11.32614330
 H                  6.92770552    1.80017626   12.19994995
 H                  8.35597695    2.30145808   11.32712439
 H                  6.93092718    3.31254406   11.32485002

 1 2 1.0 3 1.0 4 1.0 5 1.0
 2
 3
 4
 5 6 1.0 7 1.0 8 1.0
 6
 7
 8 9 1.0 10 1.0 11 1.0
 9
 10
 11 12 1.0 13 1.0 14 1.0
 12
 13
 14 15 1.0 16 1.0 17 1.0
 15
 16
 17 18 1.0 19 1.0 20 1.0
 18
 19
 20 21 1.0 22 1.0 23 1.0
 21
 22
 23 24 1.0 25 1.0 26 1.0
 24
 25
 26 27 1.0 28 1.0 29 1.0
 27
 28
 29 30 1.0 31 1.0 32 1.0
 30
 31
 32 33 1.0 34 1.0 35 1.0
 33
 34
 35 36 1.0 37 1.0 38 1.0
 36
 37
 38 39 1.0 40 1.0 41 1.0
 39
 40
 41 42 1.0 43 1.0 44 1.0
 42
 43
 44 45 1.0 46 1.0 47 1.0
 45
 46
 47 48 1.0 49 1.0 50 1.0
 48
 49
 50 51 1.0 52 1.0 53 1.0
 51
 52
 53 54 1.0 55 1.0 56 1.0
 54
 55
 56

