%chk=C:\Users\tkmeldrum\Documents\MDworking\C8H18.chk
# opt b3lyp/6-31g geom=connectivity

Title Card Required

0 1
 C                 -7.07547207   -0.59769306    0.00012034
 H                 -6.72035342   -1.60704405    0.00127318
 H                 -6.71726533   -0.09456587   -0.87363647
 H                 -8.14547040   -0.59605252   -0.00082029
 C                 -6.56212973    0.12852956    1.25737144
 H                 -6.91724838    1.13788055    1.25621860
 H                 -6.92033647   -0.37459763    2.13112825
 C                 -5.02213213    0.12616841    1.25872525
 H                 -4.66392538    0.62929560    0.38496844
 H                 -4.66701348   -0.88318258    1.25987809
 C                 -4.50878978    0.85239104    2.51597635
 H                 -4.86699653    0.34926385    3.38973316
 H                 -4.86390844    1.86174202    2.51482350
 C                 -2.96879219    0.85002988    2.51733016
 H                 -2.61058544    1.35315707    1.64357335
 H                 -2.61367353   -0.15932110    2.51848300
 C                 -2.45544984    1.57625251    3.77458126
 H                 -2.81365659    1.07312532    4.64833806
 H                 -2.81056849    2.58560350    3.77342841
 C                 -0.91545225    1.57389136    3.77593507
 H                 -0.55724550    2.07701855    2.90217826
 H                 -0.56033359    0.56454037    3.77708791
 C                 -0.40210990    2.30011398    5.03318617
 H                 -0.76031664    1.79698679    5.90694297
 H                  0.66788843    2.29847344    5.03412680
 H                 -0.75722855    3.30946497    5.03203332

 1 2 1.0 3 1.0 4 1.0 5 1.0
 2
 3
 4
 5 6 1.0 7 1.0 8 1.0
 6
 7
 8 9 1.0 10 1.0 11 1.0
 9
 10
 11 12 1.0 13 1.0 14 1.0
 12
 13
 14 15 1.0 16 1.0 17 1.0
 15
 16
 17 18 1.0 19 1.0 20 1.0
 18
 19
 20 21 1.0 22 1.0 23 1.0
 21
 22
 23 24 1.0 25 1.0 26 1.0
 24
 25
 26

